44
Coordinates from ORCA-job pyrene_deriv_p1
  C   -1.78743349644285      3.71746271111569     -0.06319125627322
  C   -0.52969118462982      4.36138583844454     -0.02593852614118
  C   0.65508447600098      3.65132963571874      0.01601400444145
  C   0.64983508686447      2.23963050699568      0.02261933270352
  C   1.86223985679394      1.48313184627564      0.07089599721597
  C   1.84931981344183      0.11617538677178      0.07566103425139
  C   0.62769365020638     -0.63633253914548      0.03006656131183
  C   0.60514969131190     -2.07262360639454      0.03031511651895
  C   -0.66168537231363     -2.70445776667975      0.00134059942601
  C   -1.84699122595866     -1.99212067197984     -0.03274265643381
  C   -1.85237407141924     -0.58297978411527     -0.04187821740593
  C   -3.06388368014080      0.17298274629676     -0.08228986445812
  C   -3.05861851162553      1.54003449142297     -0.09055846939888
  C   -1.83105023471147      2.28452821204291     -0.05790401836919
  C   -0.59767652373678      1.54271092176073     -0.01570178049668
  C   -0.60322453445430      0.10624211209132     -0.00968586859384
  C   -3.01209366983660      4.50075116017551     -0.10628837164810
  C   1.83921718338224     -2.84975803790751      0.04888111650798
  C   -3.12677339987866      5.84430577192611     -0.09108972444018
  C   1.92128188525121     -4.20955634585146      0.13819996424334
  N   3.06254970399068     -4.95996087102067      0.21278463906314
  C   3.00597801849579     -6.39081096060891     -0.01544791910170
  C   4.36076326930261     -4.32382599563993      0.14759803002546
  N   -4.43559576513450      6.46957535061417     -0.14094821623121
  O   -4.44205559783697      7.69613234306021     -0.11364760680408
  O   -5.43937851627802      5.76918055801615     -0.20586021687121
  H   -0.48791925213376      5.45232940474400     -0.03207438097693
  H   1.61131685465598      4.18029091210252      0.04430518022862
  H   2.81210254446947      2.02345875231946      0.10781392149760
  H   2.80349118790651     -0.40783240564113      0.12231917574034
  H   -0.71879467233459     -3.79453524497427     -0.00289975253962
  H   -2.80117744982609     -2.52625073691768     -0.05796305065037
  H   -4.01425942223915     -0.36790304921397     -0.10692420621167
  H   -4.01255998518935      2.06526726979109     -0.12135991801428
  H   -3.96880796066305      3.97849069940722     -0.15714261821515
  H   2.77336447551689     -2.29545879509041     -0.01588868759633
  H   -2.33242378967708      6.58567965795501     -0.04021334444714
  H   1.01116346123582     -4.81441828230887      0.17866598119407
  H   1.99771623142767     -6.76643614671832      0.21245637723946
  H   3.24204276944850     -6.66529481508932     -1.06344630437213
  H   3.72035800558774     -6.91556502662735      0.64042344748153
  H   5.14199250958133     -5.05463357070722      0.40083943053135
  H   4.58274019528764     -3.91324504625766     -0.85791708915857
  H   4.42085444630133     -3.49493459015870      0.87164615522753
