39
Coordinates from ORCA-job NC_OMe_2
  C   -7.21684234631327      3.47889885413571     -0.27201250261027
  C   -5.95105961383880      4.10368247991989     -0.23014028454679
  C   -4.77571562719056      3.37847440540693     -0.15416082279006
  C   -4.79822255729888      1.96924017283458     -0.11735057853875
  C   -3.59531913225962      1.19789132731376     -0.02993780119108
  C   -3.62535417629200     -0.16732135208159      0.00398371515171
  C   -4.86137865400001     -0.89776959878292     -0.05425872560683
  C   -4.90620223217218     -2.32694668232133     -0.02817636743048
  C   -6.16919034853146     -2.95501166679749     -0.07397703208161
  C   -7.35078564683080     -2.23023852787203     -0.12594477537319
  C   -7.33728816066361     -0.82347009340626     -0.15709223372939
  C   -8.53973878365312     -0.05075993656519     -0.23089502148323
  C   -8.51419562149925      1.31403228738203     -0.26949571820756
  C   -7.27757508608550      2.04840567316315     -0.23536550064983
  C   -6.05590734209934      1.29141794151936     -0.16040509380668
  C   -6.08168333638955     -0.14371785763083     -0.12562380421050
  C   -8.43411503203387      4.28155850651086     -0.34957620413108
  C   -3.67832975836946     -3.12397187509595      0.03028492706490
  C   -8.52330806447112      5.63494607253490     -0.41143628898434
  C   -3.58964228580583     -4.38053792733447      0.51260261995832
  C   -9.77633265877669      6.31111217159301     -0.48311236288628
  O   -2.43101051914354     -5.06914387217228      0.48082548809879
  C   -2.41185806686520     -6.31690643742484      1.14700363963442
  N   -10.78981092168399      6.87970789213586     -0.54316907389691
  H   -5.89005281838953      5.19325504009003     -0.25439674951911
  H   -3.81382388144754      3.89689272574209     -0.12011427593994
  H   -2.63970539566108      1.72742729177365      0.01520062322519
  H   -2.68534405169942     -0.71309486827969      0.08681829259118
  H   -6.21928413033360     -4.04569017241922     -0.10290242062928
  H   -8.30992986266017     -2.75416262232069     -0.16642733236229
  H   -9.49716946029720     -0.57876805055738     -0.25698969032655
  H   -9.46278296535521      1.84696054016266     -0.32645505571015
  H   -9.38302634359747      3.74332659503993     -0.35950137361626
  H   -2.74708099760750     -2.68767838700734     -0.33832220303282
  H   -7.63950724278974      6.27907842837431     -0.41035219067156
  H   -4.44593336079315     -4.90336225603851      0.95882902140794
  H   -1.42035140068024     -6.75787357412421      0.97728138258021
  H   -2.56918373125835     -6.19940565241447      2.23473371800189
  H   -3.18038738516214     -7.00305799498604      0.74601905624826
