37
Coordinates from ORCA-job NO2_OH_2
  C   -7.10964496702919      2.74819830259913     -0.24723882708280
  C   -5.84918304513539      3.38642972273132     -0.24630088374337
  C   -4.66850966428724      2.67386521836058     -0.14551295125476
  C   -4.68204458753923      1.26730940808086     -0.03887180232958
  C   -3.47356033575328      0.50853363586355      0.06660782265003
  C   -3.49339408176939     -0.85352262341132      0.16955117734026
  C   -4.72262787598097     -1.59796918536184      0.17772973814974
  C   -4.75913825275979     -3.02566472662810      0.28466100150109
  C   -6.02347375175604     -3.65651272352543      0.28385233650967
  C   -7.20607835053522     -2.94304732466674      0.18432704415062
  C   -7.20084996907187     -1.53899547871393      0.07749350481395
  C   -8.40870773443938     -0.78029000553844     -0.02720502630005
  C   -8.39367304423056      0.58179421764380     -0.13110806087906
  C   -7.16124185862856      1.32064600512526     -0.13987889309985
  C   -5.93374220149290      0.57742165889906     -0.03518777089355
  C   -5.94878430128160     -0.85420013140052      0.07350134663229
  C   -8.33157691303055      3.53181554498476     -0.35550918410787
  C   -3.52693459172232     -3.80677037622200      0.39124609570509
  C   -8.43850738349457      4.87019650110823     -0.46997589530498
  C   -3.42844075212914     -5.14664403826756      0.50445828152859
  O   -2.22136271284023     -5.75294079985731      0.59442263604412
  N   -9.74707480533266      5.49478161242271     -0.56819936782851
  O   -9.74749391395497      6.71666976304583     -0.67006021782364
  O   -10.75303813582431      4.79595281363440     -0.54509629788777
  H   -5.80060715765323      4.47406667441341     -0.32643223168898
  H   -3.70961560162821      3.19866603788113     -0.14744469860519
  H   -2.52034377727205      1.04403472094528      0.06352682243709
  H   -2.54340888317460     -1.38116923299198      0.24758136878089
  H   -6.08275949938505     -4.74379650513575      0.36311310685591
  H   -8.16297206593979     -3.47247551475647      0.18772343541251
  H   -9.36220146476817     -1.31590143212837     -0.02279997992261
  H   -9.34390794261162      1.10914503171876     -0.20835999224385
  H   -9.29163520336957      3.01331085206551     -0.34688587795077
  H   -2.57155406894111     -3.28028221131236      0.38109262033398
  H   -7.64044353457245      5.60861270730775     -0.50357247684332
  H   -4.30045768495520     -5.80980120261421      0.52993614729508
  H   -2.33586388570957     -6.70754791629900      0.67256094964961
