37
 generated by VMD
 C        -7.109488        2.747932       -0.251592
 C        -5.849081        3.386249       -0.249724
 C        -4.668333        2.673554       -0.150711
 C        -4.681862        1.266993       -0.044244
 C        -3.473150        0.507769        0.055206
 C        -3.493235       -0.853724        0.165407
 C        -4.723148       -1.596862        0.192636
 C        -4.760809       -3.022430        0.328266
 C        -6.025297       -3.653055        0.328396
 C        -7.206496       -2.942172        0.194489
 C        -7.200663       -1.539221        0.073016
 C        -8.408253       -0.781066       -0.038411
 C        -8.393267        0.581087       -0.141482
 C        -7.161001        1.320226       -0.146072
 C        -5.933591        0.577185       -0.038927
 C        -5.948808       -0.854045        0.075083
 C        -8.331470        3.531619       -0.358725
 C        -3.530734       -3.799346        0.489505
 C        -8.438500        4.870168       -0.471162
 C        -3.424090       -5.157468        0.379819
 O        -2.220919       -5.752094        0.600935
 N        -9.747111        5.494801       -0.568419
 O        -9.747588        6.716759       -0.669462
 O       -10.753056        4.795939       -0.545462
 H        -5.800566        4.473983       -0.328581
 H        -3.709393        3.198267       -0.153764
 H        -2.519411        1.042263        0.038974
 H        -2.542511       -1.382321        0.227734
 H        -6.087249       -4.735796        0.467796
 H        -8.163685       -3.471019        0.205140
 H        -9.361600       -1.316969       -0.037570
 H        -9.343372        1.108181       -0.222064
 H        -9.291505        3.013066       -0.350542
 H        -2.584166       -3.252009        0.736304
 H        -7.640482        5.608671       -0.503913
 H        -4.285416       -5.846261        0.102861
 H        -2.327319       -6.727624        0.435245
