43
Coordinates from ORCA-job pyrene_deriv_p1_prime
  C   -12.11423913778722      3.86597620771418     -0.42496479639720
  C   -10.85915427775407      4.50633339414511     -0.52300047042595
  C   -9.66923455391359      3.80732976560649     -0.43224366422774
  C   -9.66602219837925      2.41107866005419     -0.23086593069754
  C   -8.44817867367283      1.66474681508120     -0.14241225519500
  C   -8.45478828864067      0.31256340373185      0.05584700313781
  C   -9.67678535603980     -0.42871672254198      0.19428515459855
  C   -9.69215162622451     -1.84579620420855      0.41146066677215
  C   -10.95067848540242     -2.48280170356516      0.50973746248674
  C   -12.14363883533006     -1.78790201008508      0.38871115333859
  C   -12.15661851757670     -0.39508609373781      0.18293730587846
  C   -13.37315424696415      0.34827590535938      0.07197033628745
  C   -13.37346496641518      1.70075476291020     -0.12203779315173
  C   -12.14918314704359      2.44856276693344     -0.22034143448342
  C   -10.91215532816099      1.71917513785891     -0.11870906473886
  C   -10.91135511748978      0.29797472542472      0.08887884000889
  C   -13.34660550528904      4.64130739484428     -0.52587648359163
  C   -8.45369931167047     -2.61105511677834      0.53869040540809
  C   -13.46827291423986      5.94668558103347     -0.88029524735557
  C   -8.35116374955854     -3.95109575042312      0.30718072336121
  C   -14.73092032073401      6.60637500481608     -0.93135190428224
  N   -7.25106854257672     -4.74372555137520      0.50174641773328
  C   -7.16467586529870     -6.02560584394295     -0.17041717989261
  C   -6.01847025342624     -4.16433297617095      0.98865794556016
  N   -15.75269602153995      7.16124483297300     -0.98126932992307
  H   -10.82025828494440      5.58872752445841     -0.66040477073265
  H   -8.71558022466514      4.33614004568277     -0.51034504010334
  H   -7.50059515195270      2.20067091548323     -0.24573524747556
  H   -7.50233031139664     -0.21629677997142      0.09641561407171
  H   -10.98812223197031     -3.55329919000232      0.72262468051977
  H   -13.09507635229887     -2.32020200470282      0.47749106698325
  H   -14.32159498449929     -0.19198982160029      0.14278408017109
  H   -14.33189195737172      2.21138841128194     -0.21027053981916
  H   -14.27804972898872      4.12357497362372     -0.29022938003522
  H   -7.55643765752414     -2.06508540014936      0.83046256490495
  H   -12.60415288956522      6.55795324275009     -1.15591006783746
  H   -9.21717293336746     -4.50043435903619     -0.07606650678891
  H   -8.17469492566947     -6.42774546340881     -0.33914208375851
  H   -6.65664659910686     -5.96185413877249     -1.15437619222462
  H   -6.60971615250776     -6.74806645531971      0.45036504951836
  H   -5.51986376390088     -3.52244130227021      0.23363649950935
  H   -6.21269606977811     -3.54758414730733      1.88082541561551
  H   -5.32031753936330     -4.96572243639661      1.27155699727262
