37
Coordinates from ORCA-job NC_NH2_2
  C   -7.22815203030140      3.03578102329960     -0.28402495291301
  C   -5.97192713009216      3.68061637646430     -0.28434096555431
  C   -4.78531206386584      2.97786312301193     -0.18353614914722
  C   -4.78650366950755      1.57176232881639     -0.07539266925028
  C   -3.57240428348224      0.82279367527300      0.02907861141410
  C   -3.58208617879106     -0.53958055562168      0.13353714680284
  C   -4.80326113772011     -1.29523052079745      0.14508746398292
  C   -4.82374775357953     -2.72641271242794      0.25431533955805
  C   -6.08750621141696     -3.36361627369424      0.25653053723823
  C   -7.27416724425903     -2.65927335595019      0.15828861999542
  C   -7.28261302412622     -1.25492303048610      0.04924445623906
  C   -8.49531358567585     -0.50659293411562     -0.05369565127931
  C   -8.49249277212659      0.85584387990908     -0.16004836670521
  C   -7.26739118321438      1.60697681275147     -0.17355503823864
  C   -6.03299674350642      0.87203300518531     -0.06921183786469
  C   -6.03566168481881     -0.56058915969918      0.04188686182210
  C   -8.45703626635991      3.81474373422881     -0.39453140056925
  C   -3.59099364971059     -3.49845557664172      0.35913027126072
  C   -8.56952018732580      5.16374863398076     -0.50791777643475
  C   -3.49575812629289     -4.85132765166504      0.46762251432954
  C   -9.83344706468873      5.81477103281870     -0.60969518181690
  N   -2.33697044974918     -5.56414945835906      0.56487181734905
  N   -10.85709143986711      6.36212478698938     -0.69380065128576
  H   -5.92808213808292      4.76832076014135     -0.36593454421452
  H   -3.83076015950322      3.51085651496698     -0.18684757504704
  H   -2.62327238591069      1.36583073709922      0.02388183490297
  H   -2.62648902273693     -1.05748028083731      0.21023455335130
  H   -6.14106886035089     -4.45101723291812      0.33808234693400
  H   -8.22684183344408     -3.19673928594272      0.16472045071513
  H   -9.44468924769589     -1.04986163822910     -0.04570793471266
  H   -9.44955603291491      1.37102196153372     -0.23479953810767
  H   -9.39678903873084      3.26058756753114     -0.38638888307941
  H   -2.64698710052272     -2.94953250112859      0.35067620637087
  H   -7.69684246094691      5.82256814785693     -0.52674929187193
  H   -4.39153012150076     -5.47905062166866      0.48406251472872
  H   -2.34904048112214     -6.56977809724898      0.64310751136004
  H   -1.43588423605875     -5.10463221442638      0.56182134973750
