38
Coordinates from ORCA-job NO2_NH2
  C   -7.12171464716310      2.88729565707856     -0.26182629228009
  C   -5.86394209808056      3.53176470698440     -0.26335330555598
  C   -4.67983318615126      2.82583309538096     -0.16620709896199
  C   -4.68592363005638      1.41841835786866     -0.06030168076379
  C   -3.47414962137942      0.66649126827348      0.04133752205939
  C   -3.48785040202366     -0.69652925885208      0.14409751044139
  C   -4.71015567712815     -1.44923110462760      0.15556923304244
  C   -4.73447002695307     -2.88079811142921      0.26370866114054
  C   -6.00062571020296     -3.51411758465464      0.26190036987610
  C   -7.18483635066691     -2.80606920753477      0.16349139676773
  C   -7.18926652925777     -1.40103646566126      0.05818501891454
  C   -8.39983564128025     -0.64969441830007     -0.04349882199539
  C   -8.39364716701505      0.71352744684534     -0.14550284185360
  C   -7.16605324358726      1.45835986731791     -0.15540790817679
  C   -5.93366740936231      0.72105611019358     -0.05404089414015
  C   -5.94023271651049     -0.71124356081624      0.05342170306640
  C   -8.34587310576305      3.66532026759674     -0.36726608201948
  C   -3.50479134393367     -3.65580616719784      0.37242888181248
  C   -8.45932743537489      5.00407245646387     -0.48229280643700
  C   -3.41343408343750     -5.00924342610586      0.48258642727173
  N   -2.25757132750150     -5.72433663519681      0.58479141052123
  N   -9.76856755111684      5.62348623992935     -0.57746596607254
  O   -9.77405337495580      6.84581228493067     -0.68161319286645
  O   -10.77339966718333      4.92217523017511     -0.55062117233395
  H   -5.82154358878995      4.61980777374948     -0.34291286425121
  H   -3.72339389635429      3.35517305862546     -0.17059598335055
  H   -2.52362065098546      1.20687362006169      0.03533077616219
  H   -2.53340579201622     -1.21683263647843      0.21887631056933
  H   -6.05812634418978     -4.60147927845188      0.34087572849726
  H   -8.13909475328821     -3.34063798193124      0.16723795142991
  H   -9.35044853031292     -1.19071010489459     -0.03842177053016
  H   -9.34703008479619      1.23530787165715     -0.22080138141453
  H   -9.30367750253699      3.14274864528105     -0.35638521372874
  H   -2.55956448128833     -3.10909193918142      0.36750535939535
  H   -7.66361280410679      5.74485198580923     -0.51860105981408
  H   -4.31110329709815     -5.63426740125392      0.49640945312417
  H   -2.27258515995667     -6.72993378366920      0.66441082408549
  H   -1.35511916819475     -5.26731787798566      0.58495079836877
